tests/data/power_flow/single-transformer/sym_output.json
{
  "version": "1.0",
  "type": "sym_output",
  "is_batch": false,
  "attributes": {},
  "data": {
    "node": [
      {
        "id": 1,
        "energized": 1,
        "u_pu": 0.9999999999990621,
        "u": 9999.999999990621,
        "u_angle": -9.379189691964732e-12,
        "p": 0.09425959072986197,
        "q": 2.441606575591311e-09
      },
      {
        "id": 2,
        "energized": 1,
        "u_pu": 0.9708737815524862,
        "u": 388.3495126209945,
        "u_angle": -2.617993927750245,
        "p": -3.945338876803276e-11,
        "q": -1.47242022106749e-10
      }
    ],
    "source": [
      {
        "id": 3,
        "energized": 1,
        "p": 0.09425968728567045,
        "q": -2.545385840489301e-08,
        "i": 5.442085582816482e-06,
        "s": 0.0942596872856739,
        "pf": 0.9999999999999635
      }
    ],
    "transformer": [
      {
        "id": 4,
        "energized": 1,
        "loading": 9.4259590729862e-07,
        "p_from": 0.09425959072986197,
        "q_from": 2.441606575591311e-09,
        "i_from": 5.442080008164083e-06,
        "s_from": 0.09425959072986201,
        "p_to": -3.945338876803276e-11,
        "q_to": -1.47242022106749e-10,
        "i_to": 2.266233259184197e-13,
        "s_to": 1.524361602749357e-10
      }
    ]
  }
}
